<nodes>
    <node id="center" x="0.0" y="0.0" type="traffic_light"/>
    <node id="north"  x="0.0" y="100.0" type="priority"/>
    <node id="south"  x="0.0" y="-100.0" type="priority"/>
    <node id="east"   x="100.0" y="0.0" type="priority"/>
    <node id="west"   x="-100.0" y="0.0" type="priority"/>
</nodes>

<edges>
    <edge id="N2C" from="north" to="center" numLanes="2" speed="13.89"/>
    <edge id="C2N" from="center" to="north" numLanes="2" speed="13.89"/>
    <edge id="S2C" from="south" to="center" numLanes="2" speed="13.89"/>
    <edge id="C2S" from="center" to="south" numLanes="2" speed="13.89"/>
    </edges>
