<routes>
    <vType id="car" accel="2.6" decel="4.5" sigma="0.5" length="5" maxSpeed="70"/>
    
    <flow id="f_NS" type="car" begin="0" end="3600" vehsPerHour="500" from="N2C" to="C2S"/>
    
    <flow id="f_EW" type="car" begin="0" end="3600" vehsPerHour="300" from="E2C" to="W2C"/>
</routes>
