<?xml version="1.0" encoding="UTF-8"?>
<routes>
    <vType id="car" accel="2.6" decel="4.5" sigma="0.5" length="5" maxSpeed="13.89"/>

    <flow id="flow_ns" type="car" begin="0" end="3600" vehsPerHour="500" from="N2C" to="C2S"/>
    
    <flow id="flow_sn" type="car" begin="0" end="3600" vehsPerHour="450" from="S2C" to="C2N"/>

    <flow id="flow_ew" type="car" begin="0" end="3600" vehsPerHour="300" from="E2C" to="C2W"/>

    <flow id="flow_we" type="car" begin="0" end="3600" vehsPerHour="280" from="W2C" to="C2E"/>
</routes>